LTspice 26.0.1 for Windows
Circuit: C:\Users\artem\Documents\LTspice\Draft1.net
Start Time: Wed Feb  4 23:59:40 2026
solver = Normal
Maximum thread count: 8
tnom = 27
temp = 27
method = trap
WARNING: Node n004 is floating.

Direct Newton iteration succeeded in finding operating point.
Total elapsed time: 0.214 seconds.

Files loaded:
C:\Users\artem\Documents\LTspice\Draft1.net
C:\Users\artem\AppData\Local\LTspice\lib\cmp\standard.jft

